Version 4
SHEET 1 1464 680
WIRE 192 -240 176 -240
WIRE 288 -240 272 -240
WIRE 464 -224 432 -224
WIRE 544 -224 528 -224
WIRE 656 -224 624 -224
WIRE 688 -224 656 -224
WIRE 800 -224 768 -224
WIRE 176 -208 176 -240
WIRE 272 -208 272 -240
WIRE 432 -192 432 -224
WIRE 656 -128 656 -224
WIRE 688 -128 656 -128
WIRE 800 -128 800 -224
WIRE 800 -128 752 -128
WIRE 176 -96 176 -128
WIRE 192 -96 176 -96
WIRE 272 -96 272 -128
WIRE 448 -32 432 -32
WIRE 448 -16 448 -32
WIRE 656 64 656 -128
WIRE 688 64 656 64
WIRE 800 80 800 -128
WIRE 800 80 752 80
WIRE 832 80 800 80
WIRE 928 80 896 80
WIRE 1040 80 1008 80
WIRE 1120 80 1040 80
WIRE 1152 80 1120 80
WIRE 304 96 160 96
WIRE 352 96 304 96
WIRE 448 96 448 64
WIRE 448 96 416 96
WIRE 512 96 448 96
WIRE 640 96 592 96
WIRE 688 96 640 96
WIRE 160 112 160 96
WIRE 304 112 304 96
WIRE 640 112 640 96
WIRE 1040 112 1040 80
WIRE 1120 112 1120 80
WIRE 720 128 720 112
WIRE 160 208 160 192
WIRE 304 208 304 192
WIRE 640 208 640 176
WIRE 1040 208 1040 176
WIRE 1120 208 1120 176
FLAG 176 -96 VGND
FLAG 272 -240 VGND
FLAG 272 -96 0
FLAG 176 -240 VCC
FLAG 160 208 0
FLAG 304 208 0
FLAG 640 208 0
FLAG 720 128 0
FLAG 720 48 VCC
FLAG 1040 208 0
FLAG 1120 208 0
FLAG 1152 80 OUT
IOPIN 1152 80 Out
FLAG 448 -32 4V5
FLAG 160 96 IN
IOPIN 160 96 In
FLAG 432 -192 0
SYMBOL voltage 160 96 R0
WINDOW 3 -195 93 Left 2
WINDOW 123 -91 57 Left 2
WINDOW 39 0 0 Left 2
SYMATTR InstName V1
SYMATTR Value SINE(0 1 1k)
SYMATTR Value2 AC 1
SYMBOL res 288 96 R0
SYMATTR InstName R1
SYMATTR Value 1Meg
SYMBOL cap 416 80 R90
WINDOW 0 0 32 VBottom 2
WINDOW 3 32 32 VTop 2
SYMATTR InstName C1
SYMATTR Value 22nF
SYMBOL res 432 -32 R0
SYMATTR InstName R2
SYMATTR Value 1Meg
SYMBOL res 608 80 R90
WINDOW 0 0 56 VBottom 2
WINDOW 3 32 56 VTop 2
SYMATTR InstName R3
SYMATTR Value 1k
SYMBOL cap 624 112 R0
SYMATTR InstName C2
SYMATTR Value 1nF
SYMBOL Opamps\\UniversalOpamp2 720 80 R0
SYMATTR InstName U1
SYMBOL cap 752 -144 R90
WINDOW 0 0 32 VBottom 2
WINDOW 3 32 32 VTop 2
SYMATTR InstName C3
SYMATTR Value 100pF
SYMBOL res 784 -240 R90
WINDOW 0 0 56 VBottom 2
WINDOW 3 32 56 VTop 2
SYMATTR InstName R4
SYMATTR Value {Rdrive}
SYMBOL cap 896 64 R90
WINDOW 0 0 32 VBottom 2
WINDOW 3 32 32 VTop 2
SYMATTR InstName C6
SYMATTR Value 4.7uF
SYMBOL res 1024 64 R90
WINDOW 0 0 56 VBottom 2
WINDOW 3 32 56 VTop 2
SYMATTR InstName R7
SYMATTR Value 1k
SYMBOL diode 1024 112 R0
WINDOW 3 111 67 Left 2
SYMATTR InstName D1
SYMATTR Value 1N914
SYMBOL diode 1136 176 R180
WINDOW 0 24 64 Left 2
WINDOW 3 24 0 Left 2
SYMATTR InstName D2
SYMATTR Value 1N914
SYMBOL voltage 176 -224 R0
SYMATTR InstName V2
SYMATTR Value 4.5V
SYMBOL voltage 272 -224 R0
WINDOW 123 0 0 Left 2
WINDOW 39 0 0 Left 2
SYMATTR InstName V3
SYMATTR Value 4.5V
SYMBOL res 640 -240 R90
WINDOW 0 0 56 VBottom 2
WINDOW 3 32 56 VTop 2
SYMATTR InstName R5
SYMATTR Value 4.7k
SYMBOL cap 528 -240 R90
WINDOW 0 0 32 VBottom 2
WINDOW 3 32 32 VTop 2
SYMATTR InstName C4
SYMATTR Value 1uF
TEXT 872 -232 Left 2 !.step param Rdrive list 1k 2k 5k 10k 20k
TEXT 864 -208 Left 2 !.tran 0 100m 98m
TEXT 872 -184 Left 2 !;ac oct 20 1 100k
